EVs_20kW/Output_EVs_20kW/output_current_1440.csv
# Output_EVs_20kW\output_current_1440.csv run at 2000-01-02 00:00:00 EST on 907 links
link_name,currA_mag,currA_angle,currB_mag,currB_angle,currC_mag,currC_angle
Source_Impedance,0.515664,-0.229658,0.516826,3.785368,0.436710,1.775446
TR1,0.515664,-0.229658,0.516826,3.785368,0.436710,1.775446
LINE1,11.522942,-0.840824,15.645916,3.348258,11.577187,1.252837
LINE2,11.522942,-0.840824,15.645916,3.348258,11.577187,1.252837
LINE3,11.522942,-0.840824,15.645916,3.348258,11.577187,1.252837
LINE4,11.522942,-0.840824,15.645916,3.348258,11.577187,1.252837
LINE5,11.522942,-0.840824,15.645916,3.348258,11.577187,1.252837
LINE6,11.522942,-0.840824,15.645916,3.348258,11.577187,1.252837
LINE7,11.522942,-0.840824,15.645916,3.348258,11.577187,1.252837
LINE8,11.522942,-0.840824,15.645916,3.348258,11.577187,1.252837
LINE9,11.522942,-0.840824,15.645916,3.348258,11.577187,1.252837
LINE10,11.522942,-0.840824,15.645916,3.348258,11.577187,1.252837
LINE11,11.522942,-0.840824,15.645916,3.348258,11.577187,1.252837
LINE12,11.522942,-0.840824,15.645916,3.348258,11.577187,1.252837
LINE13,11.522942,-0.840824,15.645916,3.348258,11.577187,1.252837
LINE14,11.522942,-0.840824,15.645916,3.348258,11.577187,1.252837
LINE15,0.000000,-0.511831,0.000000,3.736910,0.000000,1.554938
LINE16,11.522942,-0.840824,15.645916,3.348258,11.577187,1.252837
LINE17,0.000000,-0.488580,0.000000,4.099454,0.000000,1.549079
LINE18,11.522942,-0.840824,15.645916,3.348258,11.577187,1.252837
LINE19,0.000000,-0.222327,0.000000,3.116661,0.000000,1.550650
LINE20,11.522942,-0.840824,15.645916,3.348258,11.577187,1.252837
LINE21,0.000000,-0.269911,0.000000,3.902059,0.000000,1.552944
LINE22,11.522942,-0.840824,15.645916,3.348258,11.577187,1.252837
LINE23,0.000000,-0.346682,0.000000,3.760162,0.000000,1.551541
LINE24,11.522942,-0.840824,15.645916,3.348258,11.577187,1.252837
LINE25,0.000000,-0.583531,0.000000,3.902059,0.000000,1.551773
LINE26,1.599454,-0.841119,0.000000,-0.805117,0.000000,-1.349460
LINE27,9.923489,-0.840777,15.645916,3.348258,11.577187,1.252837
LINE28,0.000000,-0.668433,0.000000,4.365707,0.000000,1.542349
LINE29,0.150335,-0.841128,0.000000,0.338134,0.000000,1.525602
LINE30,1.449119,-0.841118,0.000000,-0.785951,0.000000,-1.387646
LINE31,9.923489,-0.840777,15.645916,3.348258,11.577187,1.252837
LINE32,0.000000,-0.650417,0.000000,4.348164,0.000000,1.558543
LINE33,0.150335,-0.841128,0.000000,-0.105747,0.000000,-0.664347
LINE34,1.449119,-0.841118,0.000000,-0.518385,0.000000,4.706817
LINE35,0.000000,1.543459,0.472259,3.347727,0.000000,4.680072
LINE36,9.923489,-0.840777,15.173657,3.348275,11.577187,1.252837
LINE37,0.000000,-0.648131,0.000000,4.255049,0.000000,1.562412
LINE38,1.449119,-0.841118,0.000000,-0.956939,0.000000,3.303750
LINE39,0.000000,1.535380,0.234040,3.347728,0.000000,4.701116
LINE40,0.000000,3.521360,0.238219,3.347727,0.000000,4.701109
LINE41,9.923489,-0.840777,15.173657,3.348275,11.577187,1.252837
LINE42,0.000000,2.586716,0.000000,-0.136615,0.000000,1.346193
LINE43,0.000000,-0.719670,0.000000,3.580308,0.000000,1.554653
LINE44,1.449119,-0.841118,0.000000,-0.380427,0.000000,-1.536728
LINE45,0.000000,1.710879,0.234040,3.347728,0.000000,-1.545588
LINE46,0.000000,-0.235235,0.238219,3.347727,0.000000,-0.679758
LINE47,9.923489,-0.840777,15.173657,3.348275,11.577187,1.252837
LINE48,0.000000,2.529394,0.000000,0.013071,0.000000,1.436582
LINE49,0.000000,-0.810330,0.000000,3.902059,0.000000,1.465714
LINE50,1.449119,-0.841118,0.000000,-0.173820,0.000000,4.619786
LINE51,0.000000,2.029973,0.234040,3.347728,0.000000,4.696554
LINE52,9.923489,-0.840777,15.173657,3.348275,11.577187,1.252837
LINE53,0.000000,3.192125,0.000000,0.169264,0.000000,3.856195
LINE54,0.000000,2.543779,0.000000,0.244931,0.000000,1.471112
LINE55,0.000000,-0.612935,0.000000,3.361639,0.000000,1.521374
LINE56,1.449119,-0.841118,0.000000,-0.451076,0.000000,4.571030
LINE57,0.000000,1.860268,0.234040,3.347728,0.000000,4.664452
LINE58,9.923489,-0.840777,15.173657,3.348275,11.577187,1.252837
LINE59,0.000000,3.172632,0.000000,-0.144001,0.000000,3.535625
LINE60,0.000000,2.570015,0.000000,0.030320,0.000000,1.530040
LINE61,0.000000,-0.612935,0.000000,3.438411,0.000000,1.452146
LINE62,1.449119,-0.841118,0.000000,0.541543,0.000000,-1.199903
LINE63,0.000000,2.694306,0.234040,3.347728,0.000000,-1.536051
LINE64,7.759355,-0.840737,15.173657,3.348275,11.577187,1.252837
LINE65,2.164133,-0.840919,0.000000,1.545684,0.000000,1.419137
LINE66,0.000000,2.590204,0.000000,-0.413266,0.000000,4.368424
LINE67,0.000000,2.554312,0.000000,0.249916,0.000000,1.544685
LINE68,0.000000,-0.437342,0.000000,3.116661,0.000000,1.311483
LINE69,1.449119,-0.841118,0.000000,0.944115,0.000000,4.345297
LINE70,0.000000,2.554318,0.234040,3.347728,0.000000,4.675418
LINE71,7.759355,-0.840737,15.173657,3.348275,11.577187,1.252837
LINE72,0.204709,-0.840926,0.000000,0.454728,0.000000,1.554409
LINE73,1.959424,-0.840918,0.000000,0.905951,0.000000,4.708187
LINE74,0.000000,-1.416540,0.000000,-1.515572,0.000000,4.217584
LINE75,0.000000,2.658862,0.000000,0.294685,0.000000,1.547959
LINE76,0.000000,-0.413251,0.000000,3.085421,0.000000,1.059055
LINE77,0.000000,0.274458,0.234040,3.347728,0.000000,-0.587591
LINE78,7.759355,-0.840737,15.173657,3.348275,11.577187,1.252837
LINE79,0.000000,3.497187,0.000000,4.023230,0.000000,3.237472
LINE80,0.000000,2.635998,0.000000,0.350737,0.000000,1.527213
LINE81,0.000000,-0.448800,0.000000,3.093937,0.000000,1.133317
LINE82,0.000000,-0.081536,0.234040,3.347728,0.000000,1.571164
LINE83,7.759355,-0.840737,15.173657,3.348275,11.577187,1.252837
LINE84,0.000000,1.243935,0.000000,2.548521,0.000000,-0.478101
LINE85,0.000000,2.591178,0.000000,0.379787,0.000000,1.520567
LINE86,0.000000,-0.457340,0.000000,3.231537,0.000000,1.307791
LINE87,7.759355,-0.840737,15.173657,3.348275,11.577187,1.252837
LINE88,0.000000,3.467495,0.000000,-0.716839,0.000000,2.539635
LINE89,0.000000,2.612263,0.000000,0.311022,0.000000,1.525605
LINE90,0.000000,-0.395823,0.000000,3.475431,0.000000,1.251007
LINE91,7.759355,-0.840737,15.173657,3.348275,11.577187,1.252837
LINE92,0.000000,2.673326,0.000000,0.432216,0.000000,1.308401
LINE93,0.000000,-0.488580,0.000000,2.653013,0.000000,1.484905
LINE94,7.759355,-0.840737,15.173657,3.348275,11.577187,1.252837
LINE95,0.000000,2.545827,0.000000,0.141587,0.000000,1.444047
LINE96,0.000000,0.000000,0.000000,2.653013,0.000000,-1.566196
LINE97,7.759355,-0.840737,15.173657,3.348275,11.577187,1.252837
LINE98,0.000000,2.863982,0.000000,0.387995,0.000000,1.508532
LINE99,0.000000,3.580308,0.000000,1.545864,0.000000,4.699419
LINE100,7.759355,-0.840737,15.173657,3.348275,11.577187,1.252837
LINE101,0.000000,1.574603,0.000000,0.030964,0.000000,1.738920
LINE102,0.000000,0.000000,0.000000,0.000000,0.000000,3.116661
LINE103,0.217242,-0.840887,1.284549,3.348055,0.443143,1.252882
LINE104,7.542113,-0.840733,13.889108,3.348295,11.134043,1.252835
LINE105,0.000000,1.629396,0.000000,-0.212034,0.000000,1.937427
LINE106,0.217242,-0.840887,1.284549,3.348055,0.443143,1.252882
LINE107,7.542113,-0.840733,13.889108,3.348295,11.134043,1.252835
LINE108,0.000000,2.029072,0.000000,0.556794,0.000000,1.721738
LINE109,0.217242,-0.840887,1.284549,3.348055,0.443143,1.252882
LINE110,7.542113,-0.840733,13.889108,3.348295,11.134043,1.252835
LINE111,0.000000,2.095665,0.000000,-0.972748,0.000000,1.742542
LINE112,0.217242,-0.840887,1.284549,3.348055,0.443143,1.252882
LINE113,7.542113,-0.840733,13.889108,3.348295,11.134043,1.252835
LINE114,0.000000,2.096193,0.000000,-0.991250,0.000000,1.740327
LINE115,0.217242,-0.840887,1.284549,3.348055,0.443143,1.252882
LINE116,0.213074,-0.840861,4.550945,3.348225,2.751906,1.252853
LINE117,7.329039,-0.840729,9.338163,3.348329,8.382137,1.252829
LINE118,0.000000,2.107425,0.000000,-0.639247,0.000000,1.721702
LINE119,0.217242,-0.840887,1.284549,3.348055,0.443143,1.252882
LINE120,0.000000,3.116661,0.000000,0.074737,0.000000,-1.557783
LINE121,0.213074,-0.840861,4.550945,3.348225,2.751906,1.252853
LINE122,7.329039,-0.840729,9.338163,3.348329,8.382137,1.252829
LINE123,0.000000,2.009461,0.000000,-0.569826,0.000000,1.712209
LINE124,0.217242,-0.840887,1.284549,3.348055,0.443143,1.252882
LINE125,0.000000,3.241016,0.000000,-0.024932,0.000000,-1.560203
LINE126,0.213074,-0.840861,4.550945,3.348225,2.751906,1.252853
LINE127,7.329039,-0.840729,9.338163,3.348329,8.382137,1.252829
LINE128,0.000000,1.990042,0.000000,-0.085975,0.000000,1.610151
LINE129,0.217242,-0.840887,1.284549,3.348055,0.443143,1.252882
LINE130,0.000000,2.951512,0.000000,-0.024932,0.000000,-1.559750
LINE131,0.213074,-0.840861,0.000000,3.387534,0.000000,1.799431
LINE132,0.000000,1.839142,4.550945,3.348225,2.751906,1.252853
LINE133,7.329039,-0.840729,9.338163,3.348329,8.382137,1.252829
LINE134,0.000000,1.884553,0.000000,0.102671,0.000000,1.628009
LINE135,0.217242,-0.840887,1.284549,3.348055,0.443143,1.252882
LINE136,0.000000,3.116661,0.000000,-0.488580,0.000000,-1.551672
LINE137,0.213074,-0.840861,0.000000,3.390806,0.000000,1.776662
LINE138,0.000000,1.839260,4.550945,3.348225,2.751906,1.252853
LINE139,7.329039,-0.840729,9.338163,3.348329,8.382137,1.252829
LINE140,0.000000,1.950662,0.000000,0.191592,0.000000,1.620128
LINE141,0.217242,-0.840887,1.284549,3.348055,0.443143,1.252882
LINE142,0.000000,2.992306,0.000000,-0.719670,0.000000,-1.556686
LINE143,0.213074,-0.840861,0.000000,3.395655,0.000000,1.686093
LINE144,0.000000,1.840689,4.550945,3.348225,2.751906,1.252853
LINE145,7.329039,-0.840729,9.338163,3.348329,8.382137,1.252829
LINE146,0.000000,1.886016,0.000000,1.691466,0.000000,1.603785
LINE147,0.217242,-0.840887,1.284549,3.348055,0.443143,1.252882
LINE148,0.000000,3.045353,0.000000,-0.668433,0.000000,-1.551486
LINE149,0.213074,-0.840861,0.000000,3.366614,0.000000,1.752906
LINE150,0.000000,1.861301,0.000000,3.981100,2.751906,1.252853
LINE151,0.000000,1.427643,4.550945,3.348225,0.000000,1.327570
LINE152,7.329039,-0.840729,9.338163,3.348329,8.382137,1.252829
LINE153,0.000000,1.648292,0.000000,-0.879620,0.000000,1.553802
LINE154,0.217242,-0.840887,1.284549,3.348055,0.443143,1.252882
LINE155,0.000000,3.438411,0.000000,4.687457,0.000000,-1.551324
LINE156,0.213074,-0.840861,0.000000,3.399049,0.000000,1.716163
LINE157,0.000000,1.847075,0.000000,3.980019,2.751906,1.252853
LINE158,0.000000,1.233669,4.550945,3.348225,0.000000,1.266693
LINE159,7.329039,-0.840729,9.338163,3.348329,8.382137,1.252829
LINE160,0.000000,-0.533787,0.000000,2.422191,0.000000,-1.465938
LINE161,0.000000,1.547675,0.878692,3.348059,0.000000,4.649040
LINE162,0.217242,-0.840887,0.405857,3.348047,0.443143,1.252882
LINE163,0.000000,3.361639,0.000000,4.687457,0.000000,4.711378
LINE164,0.213074,-0.840861,0.000000,3.366440,0.000000,1.757907
LINE165,0.000000,1.847803,0.000000,3.964051,2.751906,1.252853
LINE166,0.000000,1.970447,4.550945,3.348225,0.000000,-1.047148
LINE167,7.329039,-0.840729,9.338163,3.348329,8.382137,1.252829
LINE168,0.000000,2.833020,0.000000,-0.418047,0.000000,4.619373
LINE169,0.000000,1.638225,0.878692,3.348059,0.000000,4.615310
LINE170,0.217242,-0.840887,0.405857,3.348047,0.443143,1.252882
LINE171,0.000000,3.016992,0.000000,4.687457,0.000000,-1.518732
LINE172,0.213074,-0.840861,0.000000,3.358145,0.000000,1.715914
LINE173,0.000000,1.876095,0.000000,3.988702,0.000000,2.085029
LINE174,0.000000,-1.116457,0.000000,4.046776,2.751906,1.252853
LINE175,0.000000,2.139131,4.550945,3.348225,0.000000,-1.344430
LINE176,7.329039,-0.840729,9.338163,3.348329,8.382137,1.252829
LINE177,0.000000,0.508830,0.878692,3.348059,0.000000,1.562117
LINE178,0.217242,-0.840887,0.405857,3.348047,0.000000,-1.386119
LINE179,0.000000,0.847654,0.000000,1.910818,0.443143,1.252882
LINE180,0.000000,3.116661,0.000000,3.361639,0.000000,-0.024932
LINE181,0.213074,-0.840861,0.000000,3.369826,0.000000,1.766199
LINE182,0.000000,1.841878,0.000000,3.973215,0.000000,2.192837
LINE183,0.000000,-1.158278,0.000000,4.001499,2.751906,1.252853
LINE184,0.000000,2.333756,4.550945,3.348225,0.000000,-1.310422
LINE185,7.329039,-0.840729,9.338163,3.348329,8.382137,1.252829
LINE186,0.217242,-0.840887,0.405857,3.348047,0.000000,-1.546875
LINE187,0.000000,0.842236,0.000000,1.913635,0.443143,1.252882
LINE188,0.000000,4.099454,0.000000,0.000000,0.000000,-1.558148
LINE189,0.213074,-0.840861,0.000000,3.387762,0.000000,1.961510
LINE190,0.000000,1.951570,0.000000,2.072450,0.000000,3.993163
LINE191,0.000000,1.513719,0.000000,4.396571,0.000000,2.550931
LINE192,0.000000,-1.229394,0.000000,4.026287,2.751906,1.252853
LINE193,0.000000,2.171161,4.550945,3.348225,0.000000,-1.167990
LINE194,7.329039,-0.840729,9.338163,3.348329,8.382137,1.252829
LINE195,0.217242,-0.840887,0.405857,3.348047,0.000000,4.660360
LINE196,0.000000,0.553888,0.000000,1.072356,0.221571,1.252882
LINE197,0.000000,0.782370,0.000000,2.096262,0.221572,1.252882
LINE198,0.000000,3.116661,0.000000,-0.024932,0.000000,-0.024932
LINE199,0.213074,-0.840861,0.000000,3.343299,0.000000,1.713749
LINE200,0.000000,1.458710,0.000000,0.126768,0.000000,2.283006
LINE201,0.000000,2.453929,0.000000,3.338645,0.000000,0.998403
LINE202,0.000000,-1.093884,0.000000,4.093553,2.751906,1.252853
LINE203,0.000000,1.979892,4.550945,3.348225,0.000000,-0.589452
LINE204,7.329039,-0.840729,9.338163,3.348329,8.382137,1.252829
LINE205,0.217242,-0.840887,0.000000,0.526428,0.000000,1.802330
LINE206,0.000000,4.079637,0.405857,3.348047,0.000000,4.442882
LINE207,0.000000,3.391844,0.000000,-0.330171,0.221571,1.252882
LINE208,0.000000,1.229214,0.000000,1.701151,0.221572,1.252882
LINE209,0.000000,4.687457,0.000000,0.000000,0.000000,4.698687
LINE210,0.213074,-0.840861,0.000000,3.360881,0.000000,1.670050
LINE211,0.000000,-0.683908,0.000000,3.447565,0.000000,0.677931
LINE212,0.000000,-1.188308,0.000000,4.186358,2.751906,1.252853
LINE213,0.000000,2.214764,4.550945,3.348225,0.000000,0.191035
LINE214,7.329039,-0.840729,9.338163,3.348329,8.382137,1.252829
LINE215,0.217242,-0.840887,0.000000,0.302616,0.000000,1.944569
LINE216,0.000000,3.956078,0.405857,3.348047,0.000000,4.536293
LINE217,0.000000,-0.388206,0.000000,2.530793,0.221572,1.252882
LINE218,0.000000,0.000000,0.000000,0.000000,0.000000,3.116661
LINE219,0.213074,-0.840861,0.000000,3.357634,0.000000,1.674871
LINE220,0.000000,-0.622459,0.000000,1.206856,0.000000,0.937281
LINE221,0.000000,-1.050582,0.000000,4.086282,2.751906,1.252853
LINE222,0.000000,2.339525,4.550945,3.348225,0.000000,-0.640793
LINE223,7.329039,-0.840729,9.338163,3.348329,8.382137,1.252829
LINE224,0.217242,-0.840887,0.000000,4.194275,0.000000,4.602661
LINE225,0.000000,4.406553,0.405857,3.348047,0.000000,4.492385
LINE226,0.000000,-0.896097,0.000000,2.805489,0.221572,1.252882
LINE227,0.213074,-0.840861,0.000000,3.416597,0.000000,1.676067
LINE228,0.000000,-1.018809,0.000000,0.300504,0.000000,1.650837
LINE229,0.000000,-0.991851,0.000000,4.144856,2.751906,1.252853
LINE230,0.000000,2.544567,4.550945,3.348225,0.000000,0.681961
LINE231,7.329039,-0.840729,9.338163,3.348329,8.382137,1.252829
LINE232,0.000000,-0.144317,0.405857,3.348047,0.000000,1.922657
LINE233,0.000000,0.789454,0.000000,0.601588,0.000000,4.018674
LINE234,0.000000,-0.559264,0.000000,3.573687,0.221572,1.252882
LINE235,0.213074,-0.840861,0.000000,3.320888,0.000000,1.637192
LINE236,0.000000,-0.833901,0.000000,-0.075598,0.000000,1.097782
LINE237,0.000000,-1.039719,0.000000,3.953660,2.751906,1.252853
LINE238,0.000000,2.680555,4.550945,3.348225,0.000000,1.185591
LINE239,7.329039,-0.840729,9.338163,3.348329,8.382137,1.252829
LINE240,0.000000,-0.475980,0.405857,3.348047,0.000000,1.727458
LINE241,0.000000,-0.225565,0.000000,3.606496,0.221572,1.252882
LINE242,0.213074,-0.840861,0.000000,3.411499,0.000000,1.713602
LINE243,0.000000,-0.798778,0.000000,0.098787,0.000000,1.067327
LINE244,0.000000,-0.870690,0.000000,4.162623,2.751906,1.252853
LINE245,0.000000,2.820669,4.550945,3.348225,0.000000,1.200082
LINE246,7.329039,-0.840729,9.338163,3.348329,8.382137,1.252829
LINE247,0.000000,-0.384341,0.200837,3.348047,0.000000,1.600526
LINE248,0.000000,1.793066,0.205021,3.348047,0.000000,1.708751
LINE249,0.000000,-0.409790,0.000000,1.704296,0.221572,1.252882
LINE250,0.213074,-0.840861,0.000000,3.609283,0.000000,4.038325
LINE251,0.000000,-0.161221,0.000000,1.624151,0.000000,1.927304
LINE252,0.000000,-0.975247,0.000000,4.254396,2.751906,1.252853
LINE253,0.000000,2.838357,4.550945,3.348225,0.000000,1.208927
LINE254,0.647721,-0.840833,0.000000,2.017565,0.000000,1.826941
LINE255,6.681319,-0.840719,9.338163,3.348329,8.382137,1.252829
LINE256,0.000000,1.019192,0.000000,3.126096,0.221572,1.252882
LINE257,0.213074,-0.840861,0.000000,-0.737133,0.000000,2.008956
LINE258,0.000000,-0.148188,0.000000,-0.841968,0.000000,1.202182
LINE259,0.000000,-0.890956,0.000000,4.150444,2.751906,1.252853
LINE260,0.000000,2.592400,4.550945,3.348225,0.000000,-0.312389
LINE261,0.647721,-0.840833,0.000000,2.036227,0.000000,1.871548
LINE262,6.681319,-0.840719,9.338163,3.348329,8.382137,1.252829
LINE263,0.000000,3.296608,0.000000,0.444669,0.221572,1.252882
LINE264,0.213074,-0.840861,0.000000,4.045454,0.000000,4.579480
LINE265,0.000000,0.020758,0.000000,0.536192,0.000000,1.486909
LINE266,0.000000,-0.898564,0.000000,4.167821,2.751906,1.252853
LINE267,0.000000,-0.739539,4.362567,3.348226,0.000000,-1.459055
LINE268,0.000000,2.575612,0.188378,3.348194,0.000000,-1.483523
LINE269,0.647721,-0.840833,0.000000,2.373757,0.000000,1.712267
LINE270,0.000000,0.274334,0.000000,-0.604764,0.209134,1.252817
LINE271,6.681319,-0.840719,9.338163,3.348329,8.173003,1.252829
LINE272,0.213074,-0.840861,0.000000,-0.371962,0.000000,4.384320
LINE273,0.000000,-0.322629,0.000000,-0.027836,0.000000,1.270049
LINE274,0.000000,-1.521666,0.000000,-1.411073,2.751906,1.252853
LINE275,0.000000,-0.288722,4.362567,3.348226,0.000000,4.054888
LINE276,0.000000,2.756972,0.188378,3.348194,0.000000,-1.204414
LINE277,0.647721,-0.840833,0.000000,2.030541,0.000000,1.775753
LINE278,0.000000,0.210814,0.000000,-0.820266,0.209134,1.252817
LINE279,6.681319,-0.840719,9.338163,3.348329,8.173003,1.252829
LINE280,0.213074,-0.840861,0.000000,3.214612,0.000000,1.669338
LINE281,0.000000,0.751974,0.000000,-0.739031,0.000000,1.330307
LINE282,0.000000,-1.206305,0.000000,-0.397563,2.751906,1.252853
LINE283,0.000000,2.626121,0.188378,3.348194,0.000000,-1.324689
LINE284,0.647721,-0.840833,0.000000,1.965161,0.000000,2.035559
LINE285,0.000000,0.098564,0.000000,4.379854,0.209134,1.252817
LINE286,1.826530,-0.840684,4.650102,3.348311,1.179766,1.252729
LINE287,4.854788,-0.840732,4.688061,3.348347,6.993237,1.252846
LINE288,0.213074,-0.840861,0.000000,2.981238,0.000000,0.912915
LINE289,0.000000,1.809469,0.000000,-0.037540,0.000000,1.040023
LINE290,0.000000,2.448506,0.000000,2.509008,0.225834,1.252846
LINE291,0.000000,4.618489,0.000000,-0.051024,2.526072,1.252853
LINE292,0.000000,2.855681,0.188378,3.348194,0.000000,-1.431695
LINE293,0.647721,-0.840833,0.000000,2.145811,0.000000,1.816058
LINE294,0.000000,-0.376077,0.000000,3.984917,0.209134,1.252817
LINE295,1.826530,-0.840684,4.650102,3.348311,1.179766,1.252729
LINE296,4.854788,-0.840732,4.688061,3.348347,6.993237,1.252846
LINE297,0.000000,-0.891431,0.000000,0.142939,0.225834,1.252846
LINE298,0.000000,-0.782306,0.000000,4.570287,2.526072,1.252853
LINE299,0.000000,3.010103,0.188378,3.348194,0.000000,-1.558994
LINE300,0.647721,-0.840833,0.000000,1.948410,0.000000,2.028809
LINE301,0.000000,-0.333559,0.000000,4.277096,0.209134,1.252817
LINE302,1.826530,-0.840684,4.650102,3.348311,1.179766,1.252729
LINE303,4.854788,-0.840732,4.688061,3.348347,6.993237,1.252846
LINE304,0.000000,3.587226,0.000000,2.517063,0.225834,1.252846
LINE305,0.000000,1.348177,0.000000,3.158663,2.526072,1.252853
LINE306,0.000000,-1.245414,0.188378,3.348194,0.000000,4.695454
LINE307,0.647721,-0.840833,0.000000,2.328738,0.000000,1.862855
LINE308,0.000000,-0.333730,0.000000,4.513522,0.209134,1.252817
LINE309,1.826530,-0.840684,4.650102,3.348311,1.179766,1.252729
LINE310,4.854788,-0.840732,4.688061,3.348347,6.993237,1.252846
LINE311,0.000000,2.971869,0.000000,1.279847,0.225834,1.252846
LINE312,0.000000,3.129308,0.000000,0.927208,2.526072,1.252853
LINE313,0.000000,0.028304,0.188378,3.348194,0.000000,4.679466
LINE314,0.647721,-0.840833,0.000000,2.639857,0.000000,1.837289
LINE315,0.000000,3.524044,0.000000,4.571940,0.209134,1.252817
LINE316,0.259094,-0.840799,0.000000,-0.004214,0.000000,4.632740
LINE317,1.567436,-0.840665,4.650102,3.348311,1.179766,1.252729
LINE318,4.854788,-0.840732,4.688061,3.348347,6.993237,1.252846
LINE319,0.000000,2.194809,0.000000,4.255754,0.225834,1.252846
LINE320,0.000000,2.306520,0.000000,0.098209,2.526072,1.252853
LINE321,0.647721,-0.840833,0.000000,2.687714,0.000000,2.134584
LINE322,0.000000,-0.767780,0.000000,3.242404,0.209134,1.252817
LINE323,0.259094,-0.840799,0.000000,-0.116341,0.000000,4.637569
LINE324,1.567436,-0.840665,4.650102,3.348311,1.179766,1.252729
LINE325,4.854788,-0.840732,4.688061,3.348347,6.993237,1.252846
LINE326,0.000000,3.025605,0.000000,2.221855,2.526072,1.252853
LINE327,0.647721,-0.840833,0.000000,2.645345,0.000000,3.163949
LINE328,0.000000,3.628270,0.000000,3.015395,0.209134,1.252817
LINE329,0.259094,-0.840799,0.000000,-0.151561,0.000000,4.644515
LINE330,0.000000,-1.111361,0.000000,3.979061,0.225878,1.252731
LINE331,1.567436,-0.840665,4.650102,3.348311,0.953889,1.252728
LINE332,4.854788,-0.840732,4.688061,3.348347,6.993237,1.252846
LINE333,0.647721,-0.840833,0.000000,2.573327,0.000000,2.898760
LINE334,0.000000,1.961056,0.000000,-0.201935,0.209134,1.252817
LINE335,0.259094,-0.840799,0.000000,-0.193821,0.000000,4.639306
LINE336,0.000000,4.227965,0.000000,-0.900916,0.225878,1.252731
LINE337,0.000000,-1.152956,3.447754,3.348318,0.000000,1.693881
LINE338,1.567436,-0.840665,1.202348,3.348290,0.953889,1.252728
LINE339,4.854788,-0.840732,4.688061,3.348347,6.993237,1.252846
LINE340,0.647721,-0.840833,0.000000,2.643512,0.000000,2.613113
LINE341,0.000000,3.009063,0.000000,4.472758,0.209134,1.252817
LINE342,0.142084,-0.840799,0.000000,4.196252,0.000000,4.700097
LINE343,0.117010,-0.840799,0.000000,-0.123202,0.000000,4.612430
LINE344,0.000000,-1.152775,3.447754,3.348318,0.000000,1.692760
LINE345,1.567436,-0.840665,1.202348,3.348290,0.953889,1.252728
LINE346,4.854788,-0.840732,4.688061,3.348347,6.993237,1.252846
LINE347,0.647721,-0.840833,0.000000,2.658047,0.000000,1.896480
LINE348,0.142084,-0.840799,0.000000,0.568101,0.000000,4.420499
LINE349,0.117010,-0.840799,0.000000,-0.018804,0.000000,-1.558137
LINE350,0.000000,-1.104215,3.447754,3.348318,0.000000,1.690469
LINE351,1.567436,-0.840665,1.202348,3.348290,0.953889,1.252728
LINE352,4.854788,-0.840732,4.688061,3.348347,6.993237,1.252846
LINE353,0.647721,-0.840833,0.000000,2.718456,0.000000,4.429402
LINE354,0.117010,-0.840799,0.000000,4.521377,0.000000,4.679432
LINE355,0.000000,4.358373,3.447754,3.348318,0.000000,1.753965
LINE356,1.567436,-0.840665,1.202348,3.348290,0.953889,1.252728
LINE357,4.854788,-0.840732,4.688061,3.348347,6.993237,1.252846
LINE358,0.647721,-0.840833,0.000000,3.268873,0.000000,1.703485
LINE359,0.117010,-0.840799,0.000000,-0.876071,0.000000,4.655887
LINE360,0.000000,3.203547,3.447754,3.348318,0.000000,1.949557
LINE361,1.567436,-0.840665,1.202348,3.348290,0.953889,1.252728
LINE362,4.854788,-0.840732,4.688061,3.348347,6.993237,1.252846
LINE363,0.647721,-0.840833,0.000000,1.769083,0.000000,1.927395
LINE364,0.117010,-0.840799,0.000000,4.624852,0.000000,4.477942
LINE365,0.000000,3.061085,3.447754,3.348318,0.000000,2.027264
LINE366,1.567436,-0.840665,1.202348,3.348290,0.953889,1.252728
LINE367,4.854788,-0.840732,4.688061,3.348347,6.993237,1.252846
LINE368,0.647721,-0.840833,0.000000,3.809980,0.000000,1.789207
LINE369,0.117010,-0.840799,0.000000,-0.974385,0.000000,2.651489
LINE370,0.000000,3.699744,3.447754,3.348318,0.000000,1.746711
LINE371,1.567436,-0.840665,1.202348,3.348290,0.953889,1.252728
LINE372,4.854788,-0.840732,4.688061,3.348347,6.993237,1.252846
LINE373,0.647721,-0.840833,0.000000,4.168812,0.000000,2.029105
LINE374,0.117010,-0.840799,0.000000,2.767410,0.000000,1.725114
LINE375,0.000000,3.446269,3.447754,3.348318,0.000000,1.670507
LINE376,1.567436,-0.840665,1.202348,3.348290,0.953889,1.252728
LINE377,4.854788,-0.840732,4.688061,3.348347,4.884516,1.252838
LINE378,0.000000,3.750306,0.000000,1.115192,2.108721,1.252865
LINE379,0.647721,-0.840833,0.000000,-0.213257,0.000000,4.586881
LINE380,0.117010,-0.840799,0.000000,-0.542575,0.000000,-1.522440
LINE381,0.000000,3.568698,3.447754,3.348318,0.000000,1.660471
LINE382,1.567436,-0.840665,1.202348,3.348290,0.953889,1.252728
LINE383,4.854788,-0.840732,4.688061,3.348347,4.884516,1.252838
LINE384,0.000000,-0.600641,0.000000,1.783570,2.108721,1.252865
LINE385,0.000000,3.216686,0.000000,1.103343,0.000000,4.676655
LINE386,0.647721,-0.840833,0.000000,0.213383,0.000000,4.681438
LINE387,0.117010,-0.840799,0.000000,-0.433088,0.000000,4.670948
LINE388,0.000000,2.784590,3.447754,3.348318,0.000000,1.624766
LINE389,1.567436,-0.840665,1.202348,3.348290,0.953889,1.252728
LINE390,4.854788,-0.840732,4.688061,3.348347,4.884516,1.252838
LINE391,0.000000,-0.582442,0.000000,1.705500,2.108721,1.252865
LINE392,0.000000,3.245059,0.000000,1.069317,0.000000,4.678878
LINE393,0.000000,2.639937,3.447754,3.348318,0.000000,4.550459
LINE394,1.567436,-0.840665,1.202348,3.348290,0.953889,1.252728
LINE395,0.000000,4.427562,0.000000,0.719057,1.280217,1.252843
LINE396,4.854788,-0.840732,4.688061,3.348347,3.604299,1.252837
LINE397,0.000000,-0.581850,0.000000,1.278551,2.108721,1.252865
LINE398,0.000000,3.244998,0.000000,1.158789,0.000000,4.677034
LINE399,0.000000,1.182661,3.447754,3.348318,0.000000,-1.139952
LINE400,1.567436,-0.840665,1.202348,3.348290,0.953889,1.252728
LINE401,0.000000,4.204295,0.000000,0.803556,1.280217,1.252843
LINE402,4.854788,-0.840732,4.688061,3.348347,3.604299,1.252837
LINE403,0.000000,-0.056076,0.000000,2.963338,2.108721,1.252865
LINE404,0.000000,3.651958,0.000000,1.848859,0.000000,4.657452
LINE405,0.000000,3.670409,3.447754,3.348318,0.000000,4.479275
LINE406,1.567436,-0.840665,1.202348,3.348290,0.953889,1.252728
LINE407,0.000000,0.103649,0.000000,0.899409,1.280217,1.252843
LINE408,4.854788,-0.840732,4.688061,3.348347,3.604299,1.252837
LINE409,0.000000,-0.452280,0.000000,3.633958,0.000000,1.486276
LINE410,0.000000,-0.299975,0.000000,0.950423,2.108721,1.252865
LINE411,0.000000,3.304918,0.000000,1.464684,0.000000,4.609176
LINE412,1.567436,-0.840665,1.202348,3.348290,0.953889,1.252728
LINE413,0.000000,2.566535,0.000000,1.431114,1.280217,1.252843
LINE414,4.854788,-0.840732,4.688061,3.348347,3.604299,1.252837
LINE415,0.000000,-0.404789,0.000000,3.647554,0.000000,1.494433
LINE416,0.000000,-0.149805,0.000000,2.429910,2.108721,1.252865
LINE417,0.000000,3.832575,0.000000,1.476049,0.000000,4.613334
LINE418,1.567436,-0.840665,1.202348,3.348290,0.953889,1.252728
LINE419,0.000000,3.299983,0.000000,1.203782,1.280217,1.252843
LINE420,4.854788,-0.840732,4.688061,3.348347,3.604299,1.252837
LINE421,0.000000,-0.459551,0.000000,3.581801,0.000000,1.505616
LINE422,0.000000,0.876897,0.000000,0.480183,2.108721,1.252865
LINE423,0.000000,4.036816,0.000000,0.953101,0.000000,4.641713
LINE424,1.567436,-0.840665,1.202348,3.348290,0.953889,1.252728
LINE425,0.000000,1.434332,0.000000,1.486350,0.000000,1.667309
LINE426,0.000000,3.175783,0.000000,1.093623,1.280217,1.252843
LINE427,4.854788,-0.840732,4.688061,3.348347,3.604299,1.252837
LINE428,0.000000,-0.476830,0.000000,3.683110,0.000000,1.494370
LINE429,0.000000,2.429534,0.000000,0.992309,2.108721,1.252865
LINE430,0.000000,3.717636,0.000000,0.813115,0.000000,4.633337
LINE431,1.567436,-0.840665,1.202348,3.348290,0.953889,1.252728
LINE432,0.000000,2.539162,0.000000,-0.632425,0.000000,1.320911
LINE433,0.000000,3.248331,0.000000,1.096307,1.280217,1.252843
LINE434,4.854788,-0.840732,4.688061,3.348347,3.604299,1.252837
LINE435,0.000000,-0.458033,0.000000,3.719552,0.000000,1.502052
LINE436,0.000000,2.323652,0.000000,-0.646505,2.108721,1.252865
LINE437,0.000000,4.651567,0.000000,1.384996,0.000000,4.596353
LINE438,1.567436,-0.840665,1.202348,3.348290,0.953889,1.252728
LINE439,0.000000,3.948358,0.000000,-0.313450,0.000000,1.043887
LINE440,0.000000,3.275335,0.000000,1.130182,1.280217,1.252843
LINE441,4.854788,-0.840732,4.688061,3.348347,3.604299,1.252837
LINE442,0.000000,-0.403691,0.000000,3.683975,0.000000,1.514441
LINE443,0.000000,2.496172,0.000000,3.250569,2.108721,1.252865
LINE444,0.000000,3.840433,0.000000,1.024213,0.000000,4.515472
LINE445,1.567436,-0.840665,1.202348,3.348290,0.953889,1.252728
LINE446,0.000000,-0.201681,0.000000,-0.201681,0.000000,2.996186
LINE447,0.000000,3.262314,0.000000,1.156964,1.280217,1.252843
LINE448,4.854788,-0.840732,4.688061,3.348347,3.604299,1.252837
LINE449,0.000000,-0.312961,0.000000,3.618452,0.000000,1.519790
LINE450,0.000000,2.488164,0.000000,0.432584,2.108721,1.252865
LINE451,0.000000,4.039273,0.000000,1.143237,0.000000,4.547149
LINE452,1.567436,-0.840665,1.202348,3.348290,0.953889,1.252728
LINE453,0.000000,-0.822594,0.000000,0.138154,0.000000,2.388076
LINE454,0.000000,3.017133,0.000000,1.138164,1.280217,1.252843
LINE455,4.854788,-0.840732,4.688061,3.348347,3.604299,1.252837
LINE456,0.000000,-0.384085,0.000000,3.660414,0.000000,1.440387
LINE457,0.000000,1.977754,0.000000,0.964737,2.108721,1.252865
LINE458,0.000000,4.593677,0.000000,0.184807,0.000000,4.421381
LINE459,1.366821,-0.840661,1.202348,3.348290,0.953889,1.252728
LINE460,0.000000,4.055816,0.000000,3.476272,0.000000,-1.155629
LINE461,0.200615,-0.840688,0.000000,-0.042198,0.000000,-1.508747
LINE462,0.000000,2.957741,0.000000,1.139878,1.280217,1.252843
LINE463,4.854788,-0.840732,4.688061,3.348347,3.604299,1.252837
LINE464,0.000000,-0.252046,0.000000,3.694028,0.000000,1.500225
LINE465,0.000000,1.638069,0.000000,0.417074,0.000000,4.483975
LINE466,1.366821,-0.840661,1.202348,3.348290,0.953889,1.252728
LINE467,0.000000,0.639761,0.000000,2.646888,0.000000,-1.422324
LINE468,0.000000,-0.576086,0.000000,2.500886,0.000000,4.707376
LINE469,0.200615,-0.840688,0.000000,-0.016191,0.000000,-1.506848
LINE470,0.000000,2.776719,0.000000,1.094256,1.280217,1.252843
LINE471,4.854788,-0.840732,4.688061,3.348347,3.604299,1.252837
LINE472,0.000000,-0.553933,0.000000,4.701599,0.000000,1.348675
LINE473,0.000000,3.415475,0.000000,0.296955,0.000000,4.553405
LINE474,1.366821,-0.840661,1.202348,3.348290,0.953889,1.252728
LINE475,0.000000,-0.201681,0.000000,-0.201681,0.000000,2.996186
LINE476,0.200615,-0.840688,0.000000,0.055121,0.000000,-1.500250
LINE477,0.000000,2.984003,0.000000,0.983880,1.280217,1.252843
LINE478,4.854788,-0.840732,4.688061,3.348347,3.604299,1.252837
LINE479,0.000000,-0.692624,0.000000,4.081014,0.000000,1.495613
LINE480,0.000000,0.416631,0.000000,0.181165,0.000000,4.538009
LINE481,0.965571,-0.840656,1.202348,3.348290,0.953889,1.252728
LINE482,0.000000,3.501014,0.000000,-0.126192,0.000000,1.560718
LINE483,0.401250,-0.840674,0.000000,0.357035,0.000000,4.680847
LINE484,0.200615,-0.840688,0.000000,0.187569,0.000000,-1.494431
LINE485,0.000000,2.872668,0.000000,0.967664,1.280217,1.252843
LINE486,4.854788,-0.840732,4.688061,3.348347,3.604299,1.252837
LINE487,0.000000,-0.934149,0.000000,3.878028,0.000000,1.571261
LINE488,0.000000,4.625880,0.000000,-0.549109,0.000000,1.647955
LINE489,0.965571,-0.840656,1.202348,3.348290,0.953889,1.252728
LINE490,0.000000,1.438922,0.000000,1.512478,0.000000,1.880565
LINE491,0.179726,-0.840675,0.000000,0.363789,0.000000,4.677492
LINE492,0.221524,-0.840674,0.000000,0.297122,0.000000,4.667188
LINE493,0.200615,-0.840688,0.000000,0.219912,0.000000,-1.496103
LINE494,0.000000,2.477383,0.000000,1.107986,1.280217,1.252843
LINE495,4.854788,-0.840732,4.688061,3.348347,3.604299,1.252837
LINE496,0.000000,-1.055645,0.000000,3.919751,0.000000,1.621803
LINE497,0.000000,-0.565536,0.000000,0.712100,0.000000,1.813722
LINE498,0.965571,-0.840656,1.202348,3.348290,0.953889,1.252728
LINE499,0.000000,3.157308,0.000000,-1.325376,0.000000,1.300331
LINE500,0.179726,-0.840675,0.000000,0.497827,0.000000,4.672367
LINE501,0.221524,-0.840674,0.000000,-0.398577,0.000000,1.520193
LINE502,0.200615,-0.840688,0.000000,1.399851,0.000000,-1.496672
LINE503,0.000000,2.428640,0.000000,0.426630,1.280217,1.252843
LINE504,4.854788,-0.840732,4.688061,3.348347,3.604299,1.252837
LINE505,0.000000,-1.064018,0.000000,3.956590,0.000000,1.576285
LINE506,0.000000,4.638206,0.000000,1.338403,0.000000,2.896996
LINE507,0.965571,-0.840656,1.202348,3.348290,0.953889,1.252728
LINE508,0.000000,1.702923,0.000000,2.748531,0.000000,1.949145
LINE509,0.179726,-0.840675,0.000000,0.589611,0.000000,4.651667
LINE510,0.200615,-0.840688,0.000000,0.516299,0.000000,-1.501400
LINE511,0.000000,2.341329,0.000000,0.330335,1.280217,1.252843
LINE512,0.000000,0.711888,0.762190,3.348210,0.000000,4.687492
LINE513,4.854788,-0.840732,3.925871,3.348374,3.604299,1.252837
LINE514,0.000000,-1.161548,0.000000,4.057976,0.000000,1.523902
LINE515,0.000000,4.000497,1.202348,3.348290,0.953889,1.252728
LINE516,0.000000,-0.830428,0.000000,3.657215,0.000000,1.240982
LINE517,0.965571,-0.840656,0.000000,4.348874,0.000000,-1.099516
LINE518,0.179726,-0.840675,0.000000,0.845110,0.000000,4.671772
LINE519,0.200615,-0.840688,0.000000,-0.291609,0.000000,-1.504321
LINE520,0.000000,1.849321,0.000000,-0.009731,1.280217,1.252843
LINE521,0.000000,2.513821,0.762190,3.348210,0.000000,1.604312
LINE522,4.854788,-0.840732,3.925871,3.348374,3.604299,1.252837
LINE523,0.000000,-1.011992,0.000000,3.876433,0.000000,1.225594
LINE524,0.000000,3.969233,1.202348,3.348290,0.953889,1.252728
LINE525,0.000000,4.159554,0.000000,3.444018,0.000000,-0.801241
LINE526,0.965571,-0.840656,0.000000,4.468613,0.000000,-1.118882
LINE527,0.179726,-0.840675,0.000000,0.852202,0.000000,4.704167
LINE528,0.200615,-0.840688,0.000000,3.205287,0.000000,-1.473324
LINE529,0.000000,-0.423565,0.000000,3.625946,1.280217,1.252843
LINE530,4.854788,-0.840732,3.925871,3.348374,3.604299,1.252837
LINE531,0.000000,-0.930330,0.000000,3.905127,0.000000,1.411911
LINE532,0.000000,3.965411,1.202348,3.348290,0.953889,1.252728
LINE533,0.000000,-0.201681,0.000000,-0.201681,0.000000,2.996186
LINE534,0.965571,-0.840656,0.000000,4.602376,0.000000,-1.126023
LINE535,0.179726,-0.840675,0.000000,3.588131,0.000000,1.028189
LINE536,0.200615,-0.840688,0.000000,3.807224,0.000000,-1.450558
LINE537,0.000000,-0.647170,0.000000,2.889614,1.045937,1.252845
LINE538,0.000000,2.784079,0.000000,1.248059,0.234280,1.252835
LINE539,4.854788,-0.840732,3.925871,3.348374,3.604299,1.252837
LINE540,0.000000,-1.559324,0.000000,3.640199,0.000000,1.259088
LINE541,0.000000,3.980127,1.202348,3.348290,0.953889,1.252728
LINE542,0.000000,4.611582,0.000000,-1.515658,0.000000,4.673488
LINE543,0.965571,-0.840656,0.000000,4.688853,0.000000,-1.143220
LINE544,0.179726,-0.840675,0.000000,3.394854,0.000000,-1.528082
LINE545,0.200615,-0.840688,0.000000,3.738124,0.000000,-1.394053
LINE546,0.000000,-0.949645,0.000000,1.937893,1.045937,1.252845
LINE547,4.854788,-0.840732,3.925871,3.348374,3.604299,1.252837
LINE548,0.000000,3.893812,0.000000,3.129362,0.000000,1.291526
LINE549,0.000000,3.975271,1.202348,3.348290,0.953889,1.252728
LINE550,0.000000,-0.201681,0.000000,-0.201681,0.000000,2.996186
LINE551,0.229895,-0.840659,0.000000,-0.465040,0.000000,-1.160009
LINE552,0.735676,-0.840655,0.000000,-1.276081,0.000000,4.685396
LINE553,0.179726,-0.840675,0.000000,-0.539369,0.000000,-1.519170
LINE554,0.200615,-0.840688,0.000000,3.701169,0.000000,-1.480695
LINE555,0.000000,3.602949,0.000000,2.497044,1.045937,1.252845
LINE556,4.854788,-0.840732,3.925871,3.348374,3.604299,1.252837
LINE557,0.000000,3.439503,0.000000,2.873734,0.000000,-1.308565
LINE558,0.000000,3.968231,1.202348,3.348290,0.953889,1.252728
LINE559,0.000000,3.566676,0.000000,0.128407,0.000000,2.086547
LINE560,0.229895,-0.840659,0.000000,-1.097127,0.000000,1.187866
LINE561,0.735676,-0.840655,0.000000,3.180780,0.000000,4.709608
LINE562,0.179726,-0.840675,0.000000,2.167747,0.000000,1.593404
LINE563,0.200615,-0.840688,0.000000,3.816521,0.000000,-1.497666
LINE564,4.854788,-0.840732,3.925871,3.348374,3.604299,1.252837
LINE565,0.000000,-0.333806,0.000000,-0.333806,0.000000,2.904023
LINE566,0.000000,3.963080,0.201079,3.348284,0.953889,1.252728
LINE567,0.000000,-0.252351,0.000000,-1.105759,0.000000,-1.397824
LINE568,0.000000,3.366023,1.001269,3.348291,0.000000,-1.510152
LINE569,0.229895,-0.840659,0.000000,3.841831,0.000000,1.352910
LINE570,0.200615,-0.840688,0.000000,2.715135,0.000000,1.533631
LINE571,4.854788,-0.840732,3.925871,3.348374,3.604299,1.252837
LINE572,0.000000,3.538148,0.201079,3.348284,0.953889,1.252728
LINE573,0.000000,-0.692732,0.000000,-1.567685,0.000000,4.335706
LINE574,0.000000,3.383289,1.001269,3.348291,0.000000,-1.519058
LINE575,0.229895,-0.840659,0.000000,4.399981,0.000000,1.526633
LINE576,0.200615,-0.840688,0.000000,2.558128,0.000000,4.700301
LINE577,4.854788,-0.840732,3.925871,3.348374,3.604299,1.252837
LINE578,0.000000,-0.498792,0.201079,3.348284,0.953889,1.252728
LINE579,0.000000,4.221712,0.000000,3.742443,0.000000,4.292555
LINE580,0.000000,3.334487,0.000000,3.019352,0.000000,-0.957101
LINE581,0.000000,3.578166,1.001269,3.348291,0.000000,-1.536128
LINE582,0.229895,-0.840659,0.000000,3.000258,0.000000,1.561719
LINE583,0.200615,-0.840688,0.000000,3.150981,0.000000,1.527964
LINE584,0.000000,4.235682,0.192640,3.348202,0.000000,4.673761
LINE585,4.854788,-0.840732,3.733231,3.348383,3.604299,1.252837
LINE586,0.000000,-0.356995,0.201079,3.348284,0.953889,1.252728
LINE587,0.000000,-1.382354,0.000000,-0.253858,0.000000,-0.318980
LINE588,0.000000,3.464784,0.000000,3.043044,0.000000,0.465879
LINE589,0.000000,3.363597,1.001269,3.348291,0.000000,-1.552625
LINE590,0.229895,-0.840659,0.000000,-1.544906,0.000000,4.612708
LINE591,0.200615,-0.840688,0.000000,2.464600,0.000000,3.678148
LINE592,0.000000,4.243136,0.192640,3.348202,0.000000,4.661680
LINE593,4.854788,-0.840732,3.733231,3.348383,3.604299,1.252837
LINE594,0.000000,-0.389614,0.201079,3.348284,0.000000,-0.898702
LINE595,0.000000,-0.559555,0.000000,3.278745,0.953889,1.252728
LINE596,0.000000,3.590683,0.000000,2.993321,0.000000,-1.181742
LINE597,0.000000,3.271822,1.001269,3.348291,0.000000,-1.550926
LINE598,0.229895,-0.840659,0.000000,2.643933,0.000000,1.499634
LINE599,0.200615,-0.840688,0.000000,2.826040,0.000000,1.546732
LINE600,0.000000,4.396288,0.192640,3.348202,0.000000,-1.566788
LINE601,0.000000,3.428692,0.000000,1.096154,0.188270,1.252829
LINE602,4.854788,-0.840732,3.733231,3.348383,3.416029,1.252837
LINE603,0.000000,-0.753041,0.201079,3.348284,0.000000,0.954026
LINE604,0.000000,0.552260,0.000000,0.552260,0.000000,1.735680
LINE605,0.000000,-0.293195,0.000000,-1.041990,0.000000,1.647659
LINE606,0.000000,3.460677,0.000000,1.162211,0.953889,1.252728
LINE607,0.000000,-0.149575,0.000000,-0.149575,0.000000,3.066247
LINE608,0.000000,3.567257,0.000000,3.280916,0.000000,1.127694
LINE609,0.000000,3.314446,1.001269,3.348291,0.000000,-1.553330
LINE610,0.229895,-0.840659,0.000000,-0.407137,0.000000,1.733251
LINE611,0.200615,-0.840688,0.000000,2.505379,0.000000,1.016579
LINE612,0.000000,4.488357,0.192640,3.348202,0.000000,4.597049
LINE613,0.000000,0.471658,0.000000,2.304803,0.188270,1.252829
LINE614,4.854788,-0.840732,3.733231,3.348383,3.416029,1.252837
LINE615,0.000000,-0.852917,0.201079,3.348284,0.000000,1.537119
LINE616,0.000000,2.281594,0.000000,1.642484,0.000000,-1.210694
LINE617,0.000000,3.830093,0.000000,0.033666,0.000000,0.815439
LINE618,0.000000,2.514015,0.000000,2.579789,0.953889,1.252728
LINE619,0.000000,3.492064,0.000000,0.594094,0.000000,-1.505834
LINE620,0.000000,3.276909,1.001269,3.348291,0.000000,-1.555392
LINE621,0.200615,-0.840688,0.000000,2.747383,0.000000,4.596461
LINE622,0.000000,4.483634,0.192640,3.348202,0.000000,4.703190
LINE623,0.000000,3.047499,0.226155,3.348190,0.000000,4.653798
LINE624,4.854788,-0.840732,3.507076,3.348395,3.416029,1.252837
LINE625,0.000000,-0.462310,0.201079,3.348284,0.000000,1.528813
LINE626,0.000000,-1.002966,0.000000,3.147770,0.000000,-1.378811
LINE627,0.000000,3.384264,1.001269,3.348291,0.000000,-1.554799
LINE628,0.200615,-0.840688,0.000000,-1.297006,0.000000,3.587346
LINE629,0.000000,4.282499,0.192640,3.348202,0.000000,4.712253
LINE630,0.000000,3.036157,0.226155,3.348190,0.000000,4.631666
LINE631,4.854788,-0.840732,3.507076,3.348395,3.416029,1.252837
LINE632,0.000000,-0.531166,0.201079,3.348284,0.000000,1.546707
LINE633,0.000000,1.577800,0.000000,0.776223,0.000000,-1.302645
LINE634,0.000000,3.518334,1.001269,3.348291,0.000000,-1.558714
LINE635,0.000000,4.433834,0.192640,3.348202,0.000000,4.709212
LINE636,0.000000,3.150476,0.226155,3.348190,0.000000,4.484274
LINE637,4.854788,-0.840732,3.507076,3.348395,3.416029,1.252837
LINE638,0.000000,0.000000,0.201079,3.348284,0.000000,3.074074
LINE639,0.000000,2.748237,0.000000,0.065173,0.000000,4.503591
LINE640,0.000000,3.553864,1.001269,3.348291,0.000000,-1.561958
LINE641,0.000000,4.487781,0.192640,3.348202,0.000000,-1.565473
LINE642,0.000000,3.263371,0.226155,3.348190,0.000000,2.104821
LINE643,4.854788,-0.840732,3.507076,3.348395,3.416029,1.252837
LINE644,0.000000,2.097785,0.000000,3.987191,0.000000,4.577773
LINE645,0.000000,3.216017,1.001269,3.348291,0.000000,-1.564761
LINE646,0.000000,4.445846,0.192640,3.348202,0.000000,-1.557036
LINE647,0.000000,3.088208,0.226155,3.348190,0.000000,2.511124
LINE648,4.854788,-0.840732,3.507076,3.348395,3.416029,1.252837
LINE649,0.000000,2.444603,0.000000,1.253979,0.000000,-1.454907
LINE650,0.000000,3.632378,1.001269,3.348291,0.000000,4.695384
LINE651,0.000000,4.457926,0.192640,3.348202,0.000000,4.696748
LINE652,0.000000,2.931762,0.226155,3.348190,0.000000,4.291659
LINE653,4.854788,-0.840732,3.507076,3.348395,3.416029,1.252837
LINE654,0.000000,1.820296,0.000000,-0.358263,0.000000,4.235274
LINE655,0.000000,2.151754,0.821127,3.348292,0.000000,4.682661
LINE656,0.000000,4.414625,0.180142,3.348287,0.000000,1.570161
LINE657,0.000000,4.454113,0.192640,3.348202,0.000000,4.705400
LINE658,0.000000,2.701282,0.226155,3.348190,0.000000,2.130160
LINE659,4.854788,-0.840732,3.507076,3.348395,3.416029,1.252837
LINE660,0.000000,1.184413,0.000000,2.733859,0.000000,-1.501877
LINE661,0.000000,1.316251,0.821127,3.348292,0.000000,4.638905
LINE662,0.000000,4.501332,0.180142,3.348287,0.000000,1.595983
LINE663,0.000000,4.494926,0.192640,3.348202,0.000000,4.698007
LINE664,0.000000,2.578936,0.226155,3.348190,0.000000,3.858029
LINE665,4.854788,-0.840732,3.507076,3.348395,3.416029,1.252837
LINE666,0.000000,1.995335,0.000000,2.793482,0.000000,4.621654
LINE667,0.000000,2.945899,0.821127,3.348292,0.000000,4.659554
LINE668,0.000000,-0.405293,0.180142,3.348287,0.000000,1.738599
LINE669,0.000000,4.559278,0.192640,3.348202,0.000000,4.699120
LINE670,0.000000,2.719586,0.226155,3.348190,0.000000,-0.952271
LINE671,3.947667,-0.840710,0.000000,0.648837,0.000000,-0.133615
LINE672,0.907121,-0.840829,3.507076,3.348395,3.416029,1.252837
LINE673,0.000000,1.026884,0.000000,2.884589,0.000000,-1.493126
LINE674,0.000000,0.083249,0.821127,3.348292,0.000000,-1.484351
LINE675,0.000000,1.892030,0.180142,3.348287,0.000000,4.676872
LINE676,0.000000,-1.567232,0.192640,3.348202,0.000000,4.685839
LINE677,0.000000,2.353441,0.226155,3.348190,0.000000,4.601843
LINE678,3.947667,-0.840710,0.000000,0.597297,0.000000,-0.059253
LINE679,0.907121,-0.840829,3.507076,3.348395,3.416029,1.252837
LINE680,0.000000,-1.128008,0.000000,2.879966,0.000000,-1.394876
LINE681,0.000000,0.308195,0.821127,3.348292,0.000000,4.686069
LINE682,0.000000,-1.554116,0.192640,3.348202,0.000000,4.688631
LINE683,0.000000,3.285153,0.226155,3.348190,0.000000,1.537835
LINE684,3.947667,-0.840710,0.000000,0.627043,0.000000,0.861437
LINE685,0.907121,-0.840829,3.507076,3.348395,3.416029,1.252837
LINE686,0.000000,-1.570412,0.192640,3.348202,0.000000,4.698648
LINE687,0.000000,0.153178,0.226155,3.348190,0.000000,1.659649
LINE688,3.947667,-0.840710,0.000000,0.599241,0.000000,0.972009
LINE689,0.000000,1.720488,0.000000,0.185621,0.414234,1.252828
LINE690,0.907121,-0.840829,3.507076,3.348395,3.001796,1.252838
LINE691,0.000000,4.512259,0.192640,3.348202,0.000000,4.710898
LINE692,3.947667,-0.840710,0.000000,0.574288,0.000000,1.291336
LINE693,0.000000,1.964783,0.000000,0.207650,0.205025,1.252828
LINE694,0.000000,-0.790447,0.000000,3.705677,0.209209,1.252828
LINE695,0.000000,-1.116262,0.121466,3.348233,0.000000,1.554390
LINE696,0.907121,-0.840829,3.385610,3.348401,3.001796,1.252838
LINE697,0.000000,4.368230,0.192640,3.348202,0.000000,4.694605
LINE698,3.947667,-0.840710,0.000000,0.597196,0.000000,1.417433
LINE699,0.000000,2.255158,0.000000,0.215442,0.205025,1.252828
LINE700,0.000000,0.719475,0.000000,-1.188364,0.209209,1.252828
LINE701,0.000000,3.678275,0.121466,3.348233,0.000000,1.789822
LINE702,0.907121,-0.840829,3.385610,3.348401,3.001796,1.252838
LINE703,0.000000,4.355126,0.192640,3.348202,0.000000,4.690437
LINE704,3.947667,-0.840710,0.000000,0.649228,0.000000,1.407517
LINE705,0.000000,1.891194,0.000000,0.194532,0.205025,1.252828
LINE706,0.907121,-0.840829,3.385610,3.348401,3.001796,1.252838
LINE707,0.000000,3.128560,0.000000,1.460499,0.000000,4.667505
LINE708,0.000000,4.366694,0.192640,3.348202,0.000000,4.692018
LINE709,3.947667,-0.840710,0.000000,0.617507,0.000000,1.421095
LINE710,0.000000,0.275177,0.000000,0.008815,0.205025,1.252828
LINE711,0.480728,-0.840855,3.385610,3.348401,3.001796,1.252838
LINE712,0.426394,-0.840800,0.000000,-0.928669,0.000000,-1.540838
LINE713,0.000000,3.036034,0.000000,1.197215,0.000000,4.629073
LINE714,0.000000,4.221045,0.192640,3.348202,0.000000,4.671473
LINE715,3.947667,-0.840710,0.000000,0.616464,0.000000,1.419295
LINE716,0.000000,3.803907,0.000000,0.240620,0.205025,1.252828
LINE717,0.480728,-0.840855,3.385610,3.348401,3.001796,1.252838
LINE718,0.426394,-0.840800,0.000000,-0.891495,0.000000,-1.541326
LINE719,0.000000,2.944268,0.000000,1.083931,0.000000,4.538727
LINE720,0.000000,3.858599,0.192640,3.348202,0.000000,-1.527987
LINE721,3.947667,-0.840710,0.000000,0.614716,0.000000,1.412749
LINE722,0.000000,3.617878,0.000000,0.270361,0.205025,1.252828
LINE723,0.480728,-0.840855,0.406371,3.348394,3.001796,1.252838
LINE724,0.000000,-0.256440,2.979239,3.348402,0.000000,4.590441
LINE725,0.426394,-0.840800,0.000000,-0.840445,0.000000,-1.535816
LINE726,0.000000,2.913524,0.000000,0.993978,0.000000,4.431695
LINE727,0.000000,3.769274,0.192640,3.348202,0.000000,-1.542864
LINE728,3.947667,-0.840710,0.000000,0.620787,0.000000,1.433639
LINE729,0.000000,3.170212,0.000000,0.335658,0.205025,1.252828
LINE730,0.480728,-0.840855,0.406371,3.348394,3.001796,1.252838
LINE731,0.000000,-0.245751,2.979239,3.348402,0.000000,4.600843
LINE732,0.426394,-0.840800,0.000000,-1.030764,0.000000,-1.541530
LINE733,0.000000,2.840939,0.000000,0.690487,0.000000,4.507289
LINE734,0.000000,4.017829,0.192640,3.348202,0.000000,-1.508147
LINE735,3.947667,-0.840710,0.000000,0.667818,0.000000,1.268835
LINE736,0.000000,3.436779,0.000000,1.202432,0.205025,1.252828
LINE737,0.480728,-0.840855,0.406371,3.348394,3.001796,1.252838
LINE738,0.000000,-0.219951,2.979239,3.348402,0.000000,4.604830
LINE739,0.426394,-0.840800,0.000000,-0.853494,0.000000,-1.555343
LINE740,0.000000,2.999591,0.000000,0.997365,0.000000,4.372256
LINE741,0.000000,3.869384,0.192640,3.348202,0.000000,-0.825320
LINE742,3.947667,-0.840710,0.000000,0.607216,0.000000,1.472401
LINE743,0.000000,-0.258248,0.000000,-0.060159,0.205025,1.252828
LINE744,0.480728,-0.840855,0.406371,3.348394,3.001796,1.252838
LINE745,0.000000,4.012856,2.752984,3.348404,0.000000,1.635771
LINE746,0.000000,-0.119852,0.226255,3.348384,0.000000,4.622917
LINE747,0.426394,-0.840800,0.000000,-0.822598,0.000000,-1.545130
LINE748,0.000000,2.972054,0.000000,1.158237,0.000000,4.327188
LINE749,0.000000,3.622771,0.192640,3.348202,0.000000,-1.462006
LINE750,3.947667,-0.840710,0.000000,0.591273,0.000000,-1.405772
LINE751,0.000000,-0.673918,0.000000,2.826649,0.205025,1.252828
LINE752,0.480728,-0.840855,0.406371,3.348394,0.000000,4.458545
LINE753,0.000000,-0.256428,0.000000,3.927637,3.001796,1.252838
LINE754,0.000000,4.195995,2.752984,3.348404,0.000000,-1.261512
LINE755,0.000000,0.092082,0.226255,3.348384,0.000000,4.694438
LINE756,0.426394,-0.840800,0.000000,-0.951133,0.000000,-1.558843
LINE757,0.000000,2.881212,0.000000,1.106886,0.000000,4.311252
LINE758,0.000000,3.225826,0.192640,3.348202,0.000000,-1.523597
LINE759,3.947667,-0.840710,0.000000,0.523804,0.000000,-1.557334
LINE760,0.000000,-0.514974,0.000000,2.116127,0.205025,1.252828
LINE761,0.480728,-0.840855,0.406371,3.348394,0.000000,4.450115
LINE762,0.000000,-0.259833,0.000000,3.927587,3.001796,1.252838
LINE763,0.000000,-0.837208,0.226255,3.348384,0.000000,4.692341
LINE764,0.426394,-0.840800,0.000000,-0.868733,0.000000,-1.556967
LINE765,0.000000,2.917427,0.000000,1.119105,0.000000,4.408208
LINE766,0.000000,2.684976,0.192640,3.348202,0.000000,1.670841
LINE767,3.947667,-0.840710,0.000000,0.513361,0.000000,-1.523589
LINE768,0.000000,3.105069,0.000000,4.504413,0.205025,1.252828
LINE769,0.480728,-0.840855,0.406371,3.348394,0.000000,4.443218
LINE770,0.000000,-1.233807,0.000000,3.810447,1.703964,1.252841
LINE771,0.000000,-0.262164,0.000000,3.740694,1.297831,1.252835
LINE772,0.000000,0.437905,0.226255,3.348384,0.000000,-1.564830
LINE773,0.426394,-0.840800,0.000000,-0.834844,0.000000,-1.565102
LINE774,0.000000,2.770373,0.000000,0.825520,0.000000,4.205651
LINE775,0.000000,-0.098575,0.192640,3.348202,0.000000,3.711935
LINE776,3.947667,-0.840710,0.000000,0.500038,0.000000,4.704155
LINE777,0.000000,-0.548255,0.000000,-0.548255,0.205025,1.252828
LINE778,0.480728,-0.840855,0.406371,3.348394,0.000000,4.463946
LINE779,0.000000,0.079133,0.000000,-0.415808,1.703964,1.252841
LINE780,0.000000,-0.398564,0.000000,3.734761,1.297831,1.252835
LINE781,0.000000,0.552470,0.226255,3.348384,0.000000,-1.540520
LINE782,0.426394,-0.840800,0.000000,-0.928104,0.000000,-1.565823
LINE783,0.000000,2.570587,0.000000,1.300737,0.000000,4.136228
LINE784,0.000000,-0.292248,0.192640,3.348202,0.000000,1.585055
LINE785,3.947667,-0.840710,0.000000,0.528743,0.000000,4.657114
LINE786,0.480728,-0.840855,0.406371,3.348394,0.000000,4.440049
LINE787,0.000000,-0.414516,0.000000,3.779518,1.297831,1.252835
LINE788,0.000000,0.114758,0.226255,3.348384,0.000000,1.651436
LINE789,0.426394,-0.840800,0.000000,-0.992360,0.000000,4.711895
LINE790,0.000000,2.748348,0.000000,2.043145,0.000000,2.458778
LINE791,2.496595,-0.840707,0.000000,0.538226,0.000000,4.353169
LINE792,1.451073,-0.840715,0.000000,1.215966,0.000000,-1.459916
LINE793,0.480728,-0.840855,0.406371,3.348394,0.000000,4.445631
LINE794,0.000000,-0.525826,0.000000,3.803056,1.297831,1.252835
LINE795,0.000000,2.789420,0.226255,3.348384,0.000000,-1.560721
LINE796,0.426394,-0.840800,0.000000,-1.022390,0.000000,4.709020
LINE797,0.000000,3.177920,0.000000,0.237554,0.000000,3.381642
LINE798,2.496595,-0.840707,0.000000,0.558423,0.000000,2.496712
LINE799,1.451073,-0.840715,0.000000,2.287377,0.000000,-0.696231
LINE800,0.480728,-0.840855,0.000000,3.367147,0.000000,4.639834
LINE801,0.000000,3.352625,0.406371,3.348394,0.000000,1.912230
LINE802,0.000000,-0.371795,0.000000,3.987018,1.297831,1.252835
LINE803,0.000000,4.615030,0.226255,3.348384,0.000000,1.372579
LINE804,0.426394,-0.840800,0.000000,-0.949365,0.000000,-1.564937
LINE805,0.000000,-1.551990,0.000000,1.346764,0.000000,4.406271
LINE806,2.496595,-0.840707,0.000000,0.399927,0.000000,4.510041
LINE807,1.451073,-0.840715,0.000000,0.523596,0.000000,-1.457927
LINE808,0.480728,-0.840855,0.000000,3.380394,0.000000,4.700902
LINE809,0.000000,3.408950,0.406371,3.348394,0.000000,1.813072
LINE810,0.000000,-1.389778,0.000000,4.659510,0.000000,4.538278
LINE811,0.000000,-0.253480,0.000000,3.780077,1.297831,1.252835
LINE812,0.000000,0.998583,0.226255,3.348384,0.000000,0.221262
LINE813,0.426394,-0.840800,0.000000,-0.646140,0.000000,-1.570078
LINE814,0.000000,3.778617,0.000000,-0.718217,0.000000,1.630912
LINE815,2.496595,-0.840707,0.000000,0.363265,0.000000,4.270333
LINE816,1.451073,-0.840715,0.000000,3.408050,0.000000,1.443190
LINE817,0.480728,-0.840855,0.000000,3.399311,0.000000,4.679984
LINE818,0.000000,3.400662,0.406371,3.348394,0.000000,1.706564
LINE819,0.000000,0.525728,0.000000,3.029491,0.000000,1.417934
LINE820,0.000000,0.252201,0.000000,3.895339,1.297831,1.252835
LINE821,0.426394,-0.840800,0.000000,-0.554468,0.000000,4.710785
LINE822,0.000000,4.146898,0.000000,2.863353,0.000000,2.520089
LINE823,2.496595,-0.840707,0.000000,0.446606,0.000000,3.959581
LINE824,0.480728,-0.840855,0.000000,3.401605,0.000000,4.700239
LINE825,0.000000,3.572462,0.406371,3.348394,0.000000,1.634904
LINE826,0.000000,3.749636,0.000000,1.035085,0.000000,3.711680
LINE827,0.000000,-1.320678,0.000000,-1.434240,1.297831,1.252835
LINE828,0.426394,-0.840800,0.000000,-0.493680,0.000000,4.709022
LINE829,0.000000,-0.519406,0.000000,3.478167,0.000000,-1.508329
LINE830,2.496595,-0.840707,0.000000,0.449968,0.000000,1.926131
LINE831,0.480728,-0.840855,0.000000,3.175876,0.000000,-1.568212
LINE832,0.000000,3.434869,0.406371,3.348394,0.000000,1.646810
LINE833,0.000000,4.568994,0.000000,4.568994,0.000000,1.285144
LINE834,0.000000,-0.084825,0.000000,2.022739,1.297831,1.252835
LINE835,0.426394,-0.840800,0.000000,-0.506296,0.000000,4.709239
LINE836,2.496595,-0.840707,0.000000,0.106677,0.000000,1.803389
LINE837,0.480728,-0.840855,0.000000,2.670944,0.000000,-1.553382
LINE838,0.000000,3.458265,0.406371,3.348394,0.000000,1.664181
LINE839,0.000000,-0.630036,0.000000,0.338182,0.000000,1.737763
LINE840,0.426394,-0.840800,0.000000,-0.521751,0.000000,4.709798
LINE841,2.496595,-0.840707,0.000000,-0.353374,0.000000,1.812863
LINE842,0.480728,-0.840855,0.000000,1.977200,0.000000,-1.566409
LINE843,0.000000,3.681647,0.406371,3.348394,0.000000,1.581316
LINE844,0.000000,1.779695,0.000000,0.056841,0.000000,4.267400
LINE845,0.000000,4.083200,0.000000,0.500842,0.000000,3.968827
LINE846,0.426394,-0.840800,0.000000,-0.546985,0.000000,4.707989
LINE847,2.496595,-0.840707,0.000000,4.402476,0.000000,1.665096
LINE848,0.480728,-0.840855,0.000000,2.456712,0.000000,-1.559376
LINE849,0.000000,3.756391,0.406371,3.348394,0.000000,1.579910
LINE850,0.000000,1.931493,0.000000,0.036457,0.000000,4.437366
LINE851,0.000000,1.343472,0.000000,-0.798837,0.000000,1.669131
LINE852,0.426394,-0.840800,0.000000,-0.511633,0.000000,4.699036
LINE853,2.496595,-0.840707,0.000000,2.519775,0.000000,2.657335
LINE854,0.480728,-0.840855,0.000000,2.896299,0.000000,-1.564565
LINE855,0.000000,3.717575,0.406371,3.348394,0.000000,1.585556
LINE856,0.000000,2.482270,0.000000,0.128624,0.000000,4.441095
LINE857,0.000000,-0.696265,0.000000,2.688159,0.000000,-1.294127
LINE858,0.426394,-0.840800,0.000000,-0.766692,0.000000,4.689346
LINE859,0.221626,-0.840724,0.000000,-0.555078,0.000000,1.419373
LINE860,2.274969,-0.840705,0.000000,1.447825,0.000000,1.509869
LINE861,0.480728,-0.840855,0.000000,2.781128,0.000000,-1.561923
LINE862,0.000000,3.654830,0.406371,3.348394,0.000000,1.586419
LINE863,0.000000,1.417536,0.000000,0.208941,0.000000,4.321880
LINE864,0.000000,0.681611,0.000000,3.097783,0.000000,1.866299
LINE865,0.426394,-0.840800,0.000000,-0.618904,0.000000,4.707477
LINE866,0.480728,-0.840855,0.000000,3.076142,0.000000,-1.561295
LINE867,0.000000,3.859472,0.406371,3.348394,0.000000,1.596962
LINE868,0.000000,-0.175994,0.000000,0.354914,0.000000,4.227491
LINE869,0.000000,2.498174,0.000000,3.128147,0.000000,1.748762
LINE870,0.426394,-0.840800,0.000000,-0.503861,0.000000,4.707945
LINE871,0.480728,-0.840855,0.000000,3.253479,0.000000,-1.563236
LINE872,0.000000,-1.316564,0.209470,3.348394,0.000000,1.608117
LINE873,0.000000,1.503278,0.196901,3.348393,0.000000,3.074074
LINE874,0.000000,0.456975,0.000000,0.241091,0.000000,3.885141
LINE875,0.000000,2.983524,0.000000,3.583332,0.000000,4.590467
LINE876,0.426394,-0.840800,0.000000,-0.907267,0.000000,-1.462577
LINE877,0.480728,-0.840855,0.000000,3.328119,0.000000,-1.563594
LINE878,0.000000,4.366571,0.209470,3.348394,0.000000,1.600625
LINE879,0.000000,4.644870,0.196901,3.348393,0.000000,1.551742
LINE880,0.000000,2.939912,0.000000,2.939912,0.000000,-0.145406
LINE881,0.000000,3.058785,0.000000,3.058785,0.000000,3.283071
LINE882,0.426394,-0.840800,0.000000,4.078925,0.000000,-1.543770
LINE883,0.480728,-0.840855,0.000000,3.125371,0.000000,-1.563738
LINE884,0.000000,3.717575,0.209470,3.348394,0.000000,4.590237
LINE885,0.000000,0.000000,0.196901,3.348393,0.000000,3.074074
LINE886,0.426394,-0.840800,0.000000,2.699096,0.000000,4.550367
LINE887,0.250815,-0.840855,0.000000,0.426612,0.000000,-1.558791
LINE888,0.229913,-0.840855,0.000000,3.782443,0.000000,1.721889
LINE889,0.000000,3.537722,0.209470,3.348394,0.000000,-0.067519
LINE890,0.426394,-0.840800,0.000000,2.710379,0.000000,1.623346
LINE891,0.250815,-0.840855,0.000000,0.118000,0.000000,-1.552850
LINE892,0.229913,-0.840855,0.000000,3.633365,0.000000,1.608133
LINE893,0.000000,-0.067519,0.209470,3.348394,0.000000,-0.067519
LINE894,0.225738,-0.840800,0.000000,0.078380,0.000000,1.688596
LINE895,0.200655,-0.840801,0.000000,-0.183070,0.000000,1.603680
LINE896,0.250815,-0.840855,0.000000,0.314234,0.000000,-1.558991
LINE897,0.229913,-0.840855,0.000000,3.936264,0.000000,-1.550711
LINE898,0.000000,0.000000,0.209470,3.348394,0.000000,-0.067519
LINE899,0.225738,-0.840800,0.000000,2.042687,0.000000,2.007569
LINE900,0.250815,-0.840855,0.000000,-1.004961,0.000000,-1.541509
LINE901,0.250815,-0.840855,0.000000,0.213432,0.000000,-1.551273
LINE902,0.250815,-0.840855,0.000000,2.343208,0.000000,-1.546810
LINE903,0.250815,-0.840855,0.000000,4.560321,0.000000,4.452153
LINE904,0.250815,-0.840855,0.000000,3.920159,0.000000,4.698553
LINE905,0.250815,-0.840855,0.000000,3.875913,0.000000,4.392725
